Hi! I'm Alice. I'm a file someone added to this repository a while ago.
This is the second file for testing purposes.
Third line for tesintg purposes.
New line.
New comment to test fetcing.
